*HEADING
cube with point loads.
**Calculix test example
**PS:Input deck modified
***
*INCLUDE,INPUT=Nall.inp
*INCLUDE,INPUT=Eall.inp
*INCLUDE,INPUT=Nbou.inp
*INCLUDE,INPUT=Nload.inp
***
*MATERIAL,NAME=EL
*ELASTIC
210000.,.3
***
*SOLID SECTION,ELSET=Eall,MATERIAL=EL
***
*BOUNDARY
Nbou1,1,3
Nbou2,2,3
Nbou3,3
***
*STEP
*STATIC
***
*CLOAD
Nload,3,1.
***
*NODE PRINT,NSET=Nall
U
*EL PRINT,ELSET=Eall
S
***
*END STEP

